2014MasterDissertation/SLAU07.m
function mpc = SLAU07

%% MATPOWER Case Format : Version 2
mpc.version = '2';

%%-----  Power Flow Data  -----%%
%% system MVA base
mpc.baseMVA = 100;

%% bus data
%	bus_i	type	Pd	Qd	Gs	Bs	area	Vm	Va	baseKV	zone	Vmax	Vmin
mpc.bus = [
	102959089	1	0	0	0	0	0	1	0	13.8	0	1.1	0.9;
	102959096	1	0	0	0	0	0	1	0	13.8	0	1.1	0.9;
	102959103	1	0	0	0	0	0	1	0	13.8	0	1.1	0.9;
	102959110	1	0	0	0	0	0	1	0	13.8	0	1.1	0.9;
	102959117	1	0.0241271395	0.00821885634	0	0	0	1	0	13.8	0	1.1	0.9;
	102959124	1	0.0238851898	0.00821885634	0	0	0	1	0	13.8	0	1.1	0.9;
	102959131	1	0	0	0	0	0	1	0	13.8	0	1.1	0.9;
	102959138	1	0.0234819402	0.00821885634	0	0	0	1	0	13.8	0	1.1	0.9;
	102959145	1	0.0238851898	0.00821885634	0	0	0	1	0	13.8	0	1.1	0.9;
	102959152	1	0.0239658397	0.00821885634	0	0	0	1	0	13.8	0	1.1	0.9;
	103015404	3	0	0	0	0	0	1	0	13.8	0	1.1	0.9;
	103015411	1	0	0	0	0	0	1	0	13.8	0	1.1	0.9;
	103015453	1	0	0	0	0	0	1	0	13.8	0	1.1	0.9;
	103015530	1	0	0	0	0	0	1	0	13.8	0	1.1	0.9;
	103015544	1	0	0	0	0	0	1	0	13.8	0	1.1	0.9;
	103015579	1	0	0	0	0	0	1	0	13.8	0	1.1	0.9;
	103015607	1	0	0	0	0	0	1	0	13.8	0	1.1	0.9;
	103015635	1	0	0	0	0	0	1	0	13.8	0	1.1	0.9;
	103015649	1	0	0	0	0	0	1	0	13.8	0	1.1	0.9;
	103015656	1	0	0	0	0	0	1	0	13.8	0	1.1	0.9;
	103015663	1	0	0	0	0	0	1	0	13.8	0	1.1	0.9;
	103015670	1	0	0	0	0	0	1	0	13.8	0	1.1	0.9;
	103015677	1	0.0355561778	0.0122734921	0	0	0	1	0	13.8	0	1.1	0.9;
	103015684	1	0	0	0	0	0	1	0	13.8	0	1.1	0.9;
	103015691	1	0	0	0	0	0	1	0	13.8	0	1.1	0.9;
	103015698	1	0	0	0	0	0	1	0	13.8	0	1.1	0.9;
	103015705	1	0.0235625901	0.00821885634	0	0	0	1	0	13.8	0	1.1	0.9;
	103015712	1	0	0	0	0	0	1	0	13.8	0	1.1	0.9;
	103015719	1	0	0	0	0	0	1	0	13.8	0	1.1	0.9;
	103015726	1	0	0	0	0	0	1	0	13.8	0	1.1	0.9;
	103015733	1	0.0229173908	0.00821885634	0	0	0	1	0	13.8	0	1.1	0.9;
	103015740	1	0.0234416152	0.00821885634	0	0	0	1	0	13.8	0	1.1	0.9;
	103015803	1	0	0	0	0	0	1	0	13.8	0	1.1	0.9;
	103015810	1	0	0	0	0	0	1	0	13.8	0	1.1	0.9;
	103015824	1	0	0	0	0	0	1	0	13.8	0	1.1	0.9;
	103015859	1	0	0	0	0	0	1	0	13.8	0	1.1	0.9;
	103015866	1	0.118189582	0.0237377127	0	0	0	1	0	13.8	0	1.1	0.9;
	103015873	1	0	0	0	0	0	1	0	13.8	0	1.1	0.9;
	103015880	1	0	0	0	0	0	1	0	13.8	0	1.1	0.9;
	103015887	1	0.0138794743	0.0049313138	0	0	0	1	0	13.8	0	1.1	0.9;
	103015894	1	0.034467404	0.0122734921	0	0	0	1	0	13.8	0	1.1	0.9;
	103015950	1	0	0	0	0	0	1	0	13.8	0	1.1	0.9;
	103016041	1	0	0	0	0	0	1	0	13.8	0	1.1	0.9;
	103016125	1	0	0	0	0	0	1	0	13.8	0	1.1	0.9;
	103016153	1	0	0	0	0	0	1	0	13.8	0	1.1	0.9;
	103016209	1	0	0	0	0	0	1	0	13.8	0	1.1	0.9;
	103016216	1	0	0	0	0	0	1	0	13.8	0	1.1	0.9;
	103016286	1	0	0	0	0	0	1	0	13.8	0	1.1	0.9;
	103016300	1	0	0	0	0	0	1	0	13.8	0	1.1	0.9;
	103016307	1	0	0	0	0	0	1	0	13.8	0	1.1	0.9;
	103016356	1	0	0	0	0	0	1	0	13.8	0	1.1	0.9;
	103016377	1	0	0	0	0	0	1	0	13.8	0	1.1	0.9;
	103016384	1	0.0138794743	0.0049313138	0	0	0	1	0	13.8	0	1.1	0.9;
	103016391	1	0.0156940974	0.0049313138	0	0	0	1	0	13.8	0	1.1	0.9;
	103016398	1	0	0	0	0	0	1	0	13.8	0	1.1	0.9;
	103016405	1	0.0135568747	0.0049313138	0	0	0	1	0	13.8	0	1.1	0.9;
	103016412	1	0.0146859735	0.0049313138	0	0	0	1	0	13.8	0	1.1	0.9;
	103016447	1	0	0	0	0	0	1	0	13.8	0	1.1	0.9;
	103016461	1	0	0	0	0	0	1	0	13.8	0	1.1	0.9;
	103016482	1	0	0	0	0	0	1	0	13.8	0	1.1	0.9;
	103016489	1	0	0	0	0	0	1	0	13.8	0	1.1	0.9;
	103016496	1	0	0	0	0	0	1	0	13.8	0	1.1	0.9;
	103016503	1	0.0361610522	0.0122734921	0	0	0	1	0	13.8	0	1.1	0.9;
	103016510	1	0	0	0	0	0	1	0	13.8	0	1.1	0.9;
	103016517	1	0	0	0	0	0	1	0	13.8	0	1.1	0.9;
	103016524	1	0	0	0	0	0	1	0	13.8	0	1.1	0.9;
	103016531	1	0.0459557565	0.0164377127	0	0	0	1	0	13.8	0	1.1	0.9;
	103016538	1	0.0451895823	0.0164377127	0	0	0	1	0	13.8	0	1.1	0.9;
	103016608	1	0	0	0	0	0	1	0	13.8	0	1.1	0.9;
	103016622	1	0	0	0	0	0	1	0	13.8	0	1.1	0.9;
	103016664	1	0	0	0	0	0	1	0	13.8	0	1.1	0.9;
	103016706	1	0	0	0	0	0	1	0	13.8	0	1.1	0.9;
	103016720	1	0	0	0	0	0	1	0	13.8	0	1.1	0.9;
	103016734	1	0	0	0	0	0	1	0	13.8	0	1.1	0.9;
	103016755	1	0	0	0	0	0	1	0	13.8	0	1.1	0.9;
	103016769	1	0	0	0	0	0	1	0	13.8	0	1.1	0.9;
	103016776	1	0	0	0	0	0	1	0	13.8	0	1.1	0.9;
	103016790	1	0	0	0	0	0	1	0	13.8	0	1.1	0.9;
	103016811	1	0	0	0	0	0	1	0	13.8	0	1.1	0.9;
	103016818	1	0	0	0	0	0	1	0	13.8	0	1.1	0.9;
	103016825	1	0	0	0	0	0	1	0	13.8	0	1.1	0.9;
	103016832	1	0	0	0	0	0	1	0	13.8	0	1.1	0.9;
	103016839	1	0.0232803154	0.00821885634	0	0	0	1	0	13.8	0	1.1	0.9;
	103016846	1	0.0240303596	0.00821885634	0	0	0	1	0	13.8	0	1.1	0.9;
	103016853	1	0.045967854	0.0164377127	0	0	0	1	0	13.8	0	1.1	0.9;
	103016860	1	0	0	0	0	0	1	0	13.8	0	1.1	0.9;
	103016867	1	0	0	0	0	0	1	0	13.8	0	1.1	0.9;
	103016874	1	0.0347093538	0.0122734921	0	0	0	1	0	13.8	0	1.1	0.9;
	103016881	1	0.0228367409	0.00821885634	0	0	0	1	0	13.8	0	1.1	0.9;
	103016888	1	0	0	0	0	0	1	0	13.8	0	1.1	0.9;
	103016895	1	0	0	0	0	0	1	0	13.8	0	1.1	0.9;
	103016902	1	0.0143230489	0.0049313138	0	0	0	1	0	13.8	0	1.1	0.9;
	103016909	1	0	0	0	0	0	1	0	13.8	0	1.1	0.9;
	103016993	1	0	0	0	0	0	1	0	13.8	0	1.1	0.9;
	103017014	1	0	0	0	0	0	1	0	13.8	0	1.1	0.9;
	103017049	1	0	0	0	0	0	1	0	13.8	0	1.1	0.9;
	103017056	1	0.209189582	0.0328377127	0	0	0	1	0	13.8	0	1.1	0.9;
	103017063	1	0	0	0	0	0	1	0	13.8	0	1.1	0.9;
	103017070	1	0.0677843735	0.024656569	0	0	0	1	0	13.8	0	1.1	0.9;
	103017091	1	0	0	0	0	0	1	0	13.8	0	1.1	0.9;
	103017133	1	0	0	0	0	0	1	0	13.8	0	1.1	0.9;
	103017140	1	0	0	0	0	0	1	0	13.8	0	1.1	0.9;
	103017154	1	0	0	0	0	0	1	0	13.8	0	1.1	0.9;
	103017168	1	0	0	0	0	0	1	0	13.8	0	1.1	0.9;
	103017175	1	0.0351126033	0.0122734921	0	0	0	1	0	13.8	0	1.1	0.9;
	103017182	1	0	0	0	0	0	1	0	13.8	0	1.1	0.9;
	103017189	1	0	0	0	0	0	1	0	13.8	0	1.1	0.9;
	103017196	1	0	0	0	0	0	1	0	13.8	0	1.1	0.9;
	103017203	1	0	0	0	0	0	1	0	13.8	0	1.1	0.9;
	103017210	1	0	0	0	0	0	1	0	13.8	0	1.1	0.9;
	103017217	1	0	0	0	0	0	1	0	13.8	0	1.1	0.9;
	103017224	1	0.0234416152	0.00821885634	0	0	0	1	0	13.8	0	1.1	0.9;
	103017231	1	0	0	0	0	0	1	0	13.8	0	1.1	0.9;
	103017238	1	0	0	0	0	0	1	0	13.8	0	1.1	0.9;
	103017245	1	0.0238448648	0.00821885634	0	0	0	1	0	13.8	0	1.1	0.9;
	103017252	1	0.0251755884	0.00821885634	0	0	0	1	0	13.8	0	1.1	0.9;
	103017259	1	0	0	0	0	0	1	0	13.8	0	1.1	0.9;
	103017266	1	0	0	0	0	0	1	0	13.8	0	1.1	0.9;
	103017273	1	0.0239497097	0.00821885634	0	0	0	1	0	13.8	0	1.1	0.9;
	103017280	1	0	0	0	0	0	1	0	13.8	0	1.1	0.9;
	103017287	1	0	0	0	0	0	1	0	13.8	0	1.1	0.9;
	103017294	1	0	0	0	0	0	1	0	13.8	0	1.1	0.9;
	103017301	1	0.0243690892	0.00821885634	0	0	0	1	0	13.8	0	1.1	0.9;
	103017308	1	0	0	0	0	0	1	0	13.8	0	1.1	0.9;
	103017315	1	0	0	0	0	0	1	0	13.8	0	1.1	0.9;
	103017322	1	0	0	0	0	0	1	0	13.8	0	1.1	0.9;
	103017329	1	0	0	0	0	0	1	0	13.8	0	1.1	0.9;
	103017336	1	0.0451895823	0.0164377127	0	0	0	1	0	13.8	0	1.1	0.9;
	103017343	1	0	0	0	0	0	1	0	13.8	0	1.1	0.9;
	103017350	1	0	0	0	0	0	1	0	13.8	0	1.1	0.9;
	103017357	1	0.0238045399	0.00821885634	0	0	0	1	0	13.8	0	1.1	0.9;
	103017364	1	0.0247320138	0.00821885634	0	0	0	1	0	13.8	0	1.1	0.9;
	103017371	1	0.00992506551	0.00328754253	0	0	0	1	0	13.8	0	1.1	0.9;
	103017378	1	0.0142222365	0.0049313138	0	0	0	1	0	13.8	0	1.1	0.9;
	103017385	1	0	0	0	0	0	1	0	13.8	0	1.1	0.9;
	103017392	1	0.00998152044	0.00328754253	0	0	0	1	0	13.8	0	1.1	0.9;
	103017399	1	0.0229980407	0.00821885634	0	0	0	1	0	13.8	0	1.1	0.9;
	103017448	1	0	0	0	0	0	1	0	13.8	0	1.1	0.9;
	103017476	1	0	0	0	0	0	1	0	13.8	0	1.1	0.9;
	103017497	1	0	0	0	0	0	1	0	13.8	0	1.1	0.9;
	103017532	1	0	0	0	0	0	1	0	13.8	0	1.1	0.9;
	103017560	1	0	0	0	0	0	1	0	13.8	0	1.1	0.9;
	103017567	1	0.346379165	0.0584754253	0	0	0	1	0	13.8	0	1.1	0.9;
	103017574	1	0	0	0	0	0	1	0	13.8	0	1.1	0.9;
	103017581	1	0.0156537724	0.0049313138	0	0	0	1	0	13.8	0	1.1	0.9;
	103017588	1	0	0	0	0	0	1	0	13.8	0	1.1	0.9;
	103017595	1	0.0148472733	0.0049313138	0	0	0	1	0	13.8	0	1.1	0.9;
	103017602	1	0	0	0	0	0	1	0	13.8	0	1.1	0.9;
	103017609	1	0.0149682482	0.0049313138	0	0	0	1	0	13.8	0	1.1	0.9;
	103017616	1	0.0249336386	0.00821885634	0	0	0	1	0	13.8	0	1.1	0.9;
	103017623	1	0	0	0	0	0	1	0	13.8	0	1.1	0.9;
	103017630	1	0	0	0	0	0	1	0	13.8	0	1.1	0.9;
	103017637	1	0.024611039	0.00821885634	0	0	0	1	0	13.8	0	1.1	0.9;
	103017644	1	0.0120339127	0.00405463579	0	0	0	1	0	13.8	0	1.1	0.9;
	103017651	1	0	0	0	0	0	1	0	13.8	0	1.1	0.9;
	103017658	1	0.0240061646	0.00821885634	0	0	0	1	0	13.8	0	1.1	0.9;
	103017665	1	0.0143633738	0.0049313138	0	0	0	1	0	13.8	0	1.1	0.9;
	103017672	1	0	0	0	0	0	1	0	13.8	0	1.1	0.9;
	103017679	1	0	0	0	0	0	1	0	13.8	0	1.1	0.9;
	103017686	1	0.0370885262	0.0122734921	0	0	0	1	0	13.8	0	1.1	0.9;
	103017693	1	0.0140407742	0.0049313138	0	0	0	1	0	13.8	0	1.1	0.9;
	103017700	1	0.0238045399	0.00821885634	0	0	0	1	0	13.8	0	1.1	0.9;
	103017707	1	0	0	0	0	0	1	0	13.8	0	1.1	0.9;
	103017714	1	0	0	0	0	0	1	0	13.8	0	1.1	0.9;
	103017721	1	0	0	0	0	0	1	0	13.8	0	1.1	0.9;
	103017728	1	0.0237722799	0.00821885634	0	0	0	1	0	13.8	0	1.1	0.9;
	103017763	1	0	0	0	0	0	1	0	13.8	0	1.1	0.9;
	103017777	1	0	0	0	0	0	1	0	13.8	0	1.1	0.9;
	103017791	1	0	0	0	0	0	1	0	13.8	0	1.1	0.9;
	103017840	1	0	0	0	0	0	1	0	13.8	0	1.1	0.9;
	103017847	1	0	0	0	0	0	1	0	13.8	0	1.1	0.9;
	103017854	1	0.0148271108	0.0049313138	0	0	0	1	0	13.8	0	1.1	0.9;
	103017861	1	0.0242924718	0.00821885634	0	0	0	1	0	13.8	0	1.1	0.9;
	103017896	1	0	0	0	0	0	1	0	13.8	0	1.1	0.9;
	103017903	1	0.0233206404	0.00821885634	0	0	0	1	0	13.8	0	1.1	0.9;
	103017910	1	0.0146053236	0.0049313138	0	0	0	1	0	13.8	0	1.1	0.9;
	103017917	1	0	0	0	0	0	1	0	13.8	0	1.1	0.9;
	103017924	1	0.0118284034	0.00328754253	0	0	0	1	0	13.8	0	1.1	0.9;
	103017931	1	0	0	0	0	0	1	0	13.8	0	1.1	0.9;
	103017938	1	0.0239053522	0.00821885634	0	0	0	1	0	13.8	0	1.1	0.9;
	103017945	1	0	0	0	0	0	1	0	13.8	0	1.1	0.9;
	103017952	1	0.0337415548	0.0122734921	0	0	0	1	0	13.8	0	1.1	0.9;
	103017959	1	0	0	0	0	0	1	0	13.8	0	1.1	0.9;
	103017966	1	0.0937415548	0.0182734921	0	0	0	1	0	13.8	0	1.1	0.9;
	103018008	1	0	0	0	0	0	1	0	13.8	0	1.1	0.9;
	103018015	1	0.383379165	0.0621754253	0	0	0	1	0	13.8	0	1.1	0.9;
	103018022	1	0	0	0	0	0	1	0	13.8	0	1.1	0.9;
	103018029	1	0.0537415548	0.0142734921	0	0	0	1	0	13.8	0	1.1	0.9;
	103018036	1	0	0	0	0	0	1	0	13.8	0	1.1	0.9;
	103018043	1	0.0108525395	0.00328754253	0	0	0	1	0	13.8	0	1.1	0.9;
	103018050	1	0	0	0	0	0	1	0	13.8	0	1.1	0.9;
	103018071	1	0	0	0	0	0	1	0	13.8	0	1.1	0.9;
	103018078	1	0	0	0	0	0	1	0	13.8	0	1.1	0.9;
	103018085	1	0.0252965632	0.00821885634	0	0	0	1	0	13.8	0	1.1	0.9;
	103018092	1	0	0	0	0	0	1	0	13.8	0	1.1	0.9;
	103018099	1	0	0	0	0	0	1	0	13.8	0	1.1	0.9;
	103018106	1	0	0	0	0	0	1	0	13.8	0	1.1	0.9;
	103018113	1	0	0	0	0	0	1	0	13.8	0	1.1	0.9;
	103018120	1	0.0234012903	0.00821885634	0	0	0	1	0	13.8	0	1.1	0.9;
	103018127	1	0	0	0	0	0	1	0	13.8	0	1.1	0.9;
...
];

%% generator data
%	bus	Pg	Qg	Qmax	Qmin	Vg	mBase	status	Pmax	Pmin	Pc1	Pc2	Qc1min	Qc1max	Qc2min	Qc2max	ramp_agc	ramp_10	ramp_30	ramp_q	apf
mpc.gen = [
	103015404	5	0	2.5	-2.5	1	100	1	10	5	0	0	0	0	0	0	0	0	0	0	0;
];

%% branch data
%	fbus	tbus	r	x	b	rateA	rateB	rateC	ratio	angle	status	angmin	angmax
mpc.branch = [
	102959152	102959145	0.0518601932	0.0348337799	-2.62549884e-07	0.001656	0.002484	0.0027738	1	0	1	-360	360;
	103015649	103015663	0.0237665893	0.0330046925	-2.62549884e-07	0.002622	0.0039468	0.0043884	1	0	1	-360	360;
	103015663	103015684	0.0181201025	0.00796963012	-2.62549884e-07	0.0012282	0.0018492	0.0020562	1	0	1	-360	360;
	103016377	103016384	0.067038684	0.0749828388	-2.62549884e-07	0.0006624	0.0013662	0.0015318	1	0	1	-360	360;
	103016888	103016895	0.0320368808	0.0140905433	-2.62549884e-07	0.0012282	0.0018492	0.0020562	1	0	1	-360	360;
	103017231	103017245	0.0733071167	0.0819940874	-2.62549884e-07	0.0006624	0.0013662	0.0015318	1	0	1	-360	360;
	103017231	103017238	0.041925386	0.0468935884	-2.62549884e-07	0.0006624	0.0013662	0.0015318	1	0	1	-360	360;
	103017266	103017308	0.0923654161	0.103310815	-2.62549884e-07	0.0006624	0.0013662	0.0015318	1	0	1	-360	360;
	103017280	103017287	0.0257409132	0.0287912386	-2.62549884e-07	0.0006624	0.0013662	0.0015318	1	0	1	-360	360;
	103017287	103017343	2.62549884e-05	2.62549884e-05	-2.62549884e-07	6	8	10	1	0	1	-360	360;
	103017574	103017581	0.079900999	0.0329372795	-2.62549884e-07	0.001863	0.0028014	0.003105	1	0	1	-360	360;
	103017630	103017651	0.0611470489	0.0683930387	-2.62549884e-07	0.0006624	0.0013662	0.0015318	1	0	1	-360	360;
	103017630	103017644	0.0231165246	0.0258558572	-2.62549884e-07	0.0006624	0.0013662	0.0015318	1	0	1	-360	360;
	103018148	103018155	0.00519754001	0.000923164041	-2.62549884e-07	0.001449	0.0021666	0.002415	1	0	1	-360	360;
	104564602	104564609	0.0348035131	0.0233770421	-2.62549884e-07	0.001656	0.002484	0.0027738	1	0	1	-360	360;
	104564630	103017140	0.0131536328	0.00883511464	-2.62549884e-07	0.001656	0.002484	0.0027738	1	0	1	-360	360;
	110891888	110891902	0.0961346616	0.10752672	-2.62549884e-07	0.0006624	0.0013662	0.0015318	1	0	1	-360	360;
	127569353	127569360	0.0587104836	0.0656677379	-2.62549884e-07	0.0006624	0.0013662	0.0015318	1	0	1	-360	360;
	127570361	127570368	0.108209468	0.121032404	-2.62549884e-07	0.0006624	0.0013662	0.0015318	1	0	1	-360	360;
	127570368	127570382	0.0270966144	0.0303075918	-2.62549884e-07	0.0006624	0.0013662	0.0015318	1	0	1	-360	360;
	148170793	103016307	0.00215816005	0.000383322831	-2.62549884e-07	0.001449	0.0021666	0.002415	1	0	1	-360	360;
	134112099	148265482	2.62549884e-05	2.62549884e-05	-2.62549884e-07	6	8	10	1	0	1	-360	360;
	134112099	148265534	0.00162447469	0.00171724542	-2.62549884e-07	0.0037812	0.005658	0.0062928	1	0	1	-360	360;
	148265540	148265541	0.0227536715	0.0315980523	-2.62549884e-07	0.002622	0.0039468	0.0043884	1	0	1	-360	360;
	148689112	148689114	0.107771682	0.12054274	-2.62549884e-07	0.0006624	0.0013662	0.0015318	1	0	1	-360	360;
	148689116	148689117	0.0285511869	0.0319345326	-2.62549884e-07	0.0006624	0.0013662	0.0015318	1	0	1	-360	360;
	148689119	103017497	0.0309958546	0.0127773011	-2.62549884e-07	0.001863	0.0028014	0.003105	1	0	1	-360	360;
	148689120	148689121	0.0118784354	0.00489660144	-2.62549884e-07	0.001863	0.0028014	0.003105	1	0	1	-360	360;
	103016790	148689903	0.00314244577	0.0059668873	-2.62549884e-07	0.003519	0.0052716	0.005865	1	0	1	-360	360;
	148689901	103016769	2.62549884e-05	2.62549884e-05	-2.62549884e-07	6	8	10	1	0	1	-360	360;
	148890989	148890990	0.010779819	0.00724065649	-2.62549884e-07	0.001656	0.002484	0.0027738	1	0	1	-360	360;
	149342344	103016608	0.00295792497	0.00373921105	-2.62549884e-07	0.0025944	0.0038916	0.0043332	1	0	1	-360	360;
	149342348	149342349	0.0123906067	0.00544966853	-2.62549884e-07	0.0012282	0.0018492	0.0020562	1	0	1	-360	360;
	149947358	103017014	0.0254470415	0.0284625428	-2.62549884e-07	0.0006624	0.0013662	0.0015318	1	0	1	-360	360;
	149947360	149947361	0.109036941	0.121957934	-2.62549884e-07	0.0006624	0.0013662	0.0015318	1	0	1	-360	360;
	103016832	149947356	2.62549884e-05	2.62549884e-05	-2.62549884e-07	6	8	10	1	0	1	-360	360;
	149976839	149976840	0.00224933616	0.00284346045	-2.62549884e-07	0.0025944	0.0038916	0.0043332	1	0	1	-360	360;
	103017497	150035376	2.62549884e-05	2.62549884e-05	-2.62549884e-07	6	8	10	1	0	1	-360	360;
	102959096	102959089	0.00453108046	0.00304346455	-2.62549884e-07	0.001656	0.002484	0.0027738	1	0	1	-360	360;
	103015656	103015733	0.0317366806	0.0139585085	-2.62549884e-07	0.0012282	0.0018492	0.0020562	1	0	1	-360	360;
	103015691	103015712	0.0240873398	0.0334501192	-2.62549884e-07	0.002622	0.0039468	0.0043884	1	0	1	-360	360;
	103016307	103016398	2.62549884e-05	2.62549884e-05	-2.62549884e-07	6	8	10	1	0	1	-360	360;
	103016839	103016846	0.0365570164	0.0245548461	-2.62549884e-07	0.001656	0.002484	0.0027738	1	0	1	-360	360;
	103016902	103016909	0.0124399569	0.00835574829	-2.62549884e-07	0.001656	0.002484	0.0027738	1	0	1	-360	360;
	103016860	103016867	2.62549884e-05	2.62549884e-05	-2.62549884e-07	6	8	10	1	0	1	-360	360;
	103017196	103017210	0.00989075024	0.00664348118	-2.62549884e-07	0.001656	0.002484	0.0027738	1	0	1	-360	360;
	103017266	103017301	0.128838967	0.144106521	-2.62549884e-07	0.0006624	0.0013662	0.0015318	1	0	1	-360	360;
	103017280	103017294	0.0580952168	0.0649795613	-2.62549884e-07	0.0006624	0.0013662	0.0015318	1	0	1	-360	360;
	103017322	103017329	2.62549884e-05	2.62549884e-05	-2.62549884e-07	6	8	10	1	0	1	-360	360;
	103017378	103017385	0.0359998127	0.0158335302	-2.62549884e-07	0.0012282	0.0018492	0.0020562	1	0	1	-360	360;
	103017672	103017679	0.029767197	0.0332946413	-2.62549884e-07	0.0006624	0.0013662	0.0015318	1	0	1	-360	360;
	103017700	103017707	0.0667089607	0.0746140429	-2.62549884e-07	0.0006624	0.0013662	0.0015318	1	0	1	-360	360;
	103017840	103017847	0.0231165246	0.0258558572	-2.62549884e-07	0.0006624	0.0013662	0.0015318	1	0	1	-360	360;
	103017777	103017896	2.62549884e-05	2.62549884e-05	-2.62549884e-07	6	8	10	1	0	1	-360	360;
	103018043	103018050	0.0196021281	0.00862145841	-2.62549884e-07	0.0012282	0.0018492	0.0020562	1	0	1	-360	360;
	103018078	103018085	0.0347315393	0.0388472634	-2.62549884e-07	0.0006624	0.0013662	0.0015318	1	0	1	-360	360;
	103018183	103018190	0.0367200358	0.00652205015	-2.62549884e-07	0.001449	0.0021666	0.002415	1	0	1	-360	360;
	103018211	103018218	0.0199925544	0.00824145333	-2.62549884e-07	0.001863	0.0028014	0.003105	1	0	1	-360	360;
	103015530	103018281	2.62549884e-05	2.62549884e-05	-2.62549884e-07	6	8	10	1	0	1	-360	360;
	110891930	110891937	0.0265626316	0.0297103314	-2.62549884e-07	0.0006624	0.0013662	0.0015318	1	0	1	-360	360;
	103016300	127569339	2.62549884e-05	2.62549884e-05	-2.62549884e-07	6	8	10	1	0	1	-360	360;
	127569941	127569948	0.0608671503	0.0408836294	-2.62549884e-07	0.001656	0.002484	0.0027738	1	0	1	-360	360;
	127569962	127569983	0.0265649906	0.004718356	-2.62549884e-07	0.001449	0.0021666	0.002415	1	0	1	-360	360;
	127569969	127569976	0.00412636616	0.00436201526	-2.62549884e-07	0.0037812	0.005658	0.0062928	1	0	1	-360	360;
	148170792	103016300	0.0257179646	0.00456791099	-2.62549884e-07	0.001449	0.0021666	0.002415	1	0	1	-360	360;
	148170800	148170801	0.0702869468	0.0786160242	-2.62549884e-07	0.0006624	0.0013662	0.0015318	1	0	1	-360	360;
	148265537	148265538	0.0518141306	0.0213591385	-2.62549884e-07	0.001863	0.0028014	0.003105	1	0	1	-360	360;
	148265538	148265544	0.0466788265	0.00829088645	-2.62549884e-07	0.001449	0.0021666	0.002415	1	0	1	-360	360;
	103015453	148266966	0.00534572826	0.00742361957	-2.62549884e-07	0.002622	0.0039468	0.0043884	1	0	1	-360	360;
	148266967	132762772	0.0076098459	0.00804443006	-2.62549884e-07	0.0037812	0.005658	0.0062928	1	0	1	-360	360;
	148266967	148266968	0.00927026655	0.00979967424	-2.62549884e-07	0.0037812	0.005658	0.0062928	1	0	1	-360	360;
	148689111	148689112	0.119998722	0.134218697	-2.62549884e-07	0.0006624	0.0013662	0.0015318	1	0	1	-360	360;
	148689112	148689115	0.0509576528	0.0569961884	-2.62549884e-07	0.0006624	0.0013662	0.0015318	1	0	1	-360	360;
	103017448	148689116	0.0338753912	0.0378896608	-2.62549884e-07	0.0006624	0.0013662	0.0015318	1	0	1	-360	360;
	148890918	148890919	0.14212534	0.158967343	-2.62549884e-07	0.0006624	0.0013662	0.0015318	1	0	1	-360	360;
	148890979	148890980	0.0345765124	0.0386738655	-2.62549884e-07	0.0006624	0.0013662	0.0015318	1	0	1	-360	360;
	102959145	102959124	0.10430044	0.0700571738	-2.62549884e-07	0.001656	0.002484	0.0027738	1	0	1	-360	360;
	102959131	102959138	0.0886628972	0.099169544	-2.62549884e-07	0.0006624	0.0013662	0.0015318	1	0	1	-360	360;
	103015635	103015649	0.0205924629	0.0285967791	-2.62549884e-07	0.002622	0.0039468	0.0043884	1	0	1	-360	360;
	103015656	103015726	0.0175876232	0.0077354337	-2.62549884e-07	0.0012282	0.0018492	0.0020562	1	0	1	-360	360;
	103015663	103015691	0.0356023108	0.0494409738	-2.62549884e-07	0.002622	0.0039468	0.0043884	1	0	1	-360	360;
	103015698	103015873	2.62549884e-05	2.62549884e-05	-2.62549884e-07	6	8	10	1	0	1	-360	360;
	103016461	103016510	2.62549884e-05	2.62549884e-05	-2.62549884e-07	6	8	10	1	0	1	-360	360;
	103016853	103016860	0.0553982579	0.0372102495	-2.62549884e-07	0.001656	0.002484	0.0027738	1	0	1	-360	360;
	103016881	103016888	0.0283139111	0.0190180654	-2.62549884e-07	0.001656	0.002484	0.0027738	1	0	1	-360	360;
	103016993	103017063	2.62549884e-05	2.62549884e-05	-2.62549884e-07	6	8	10	1	0	1	-360	360;
	103017189	103017196	2.62549884e-05	2.62549884e-05	-2.62549884e-07	6	8	10	1	0	1	-360	360;
	103017273	103017280	0.122956447	0.137526916	-2.62549884e-07	0.0006624	0.0013662	0.0015318	1	0	1	-360	360;
	103017322	2809283	0.0166850837	0.00733847643	-2.62549884e-07	0.0012282	0.0018492	0.0020562	1	0	1	-360	360;
	103017476	103017574	2.62549884e-05	2.62549884e-05	-2.62549884e-07	6	8	10	1	0	1	-360	360;
	103017448	103017623	2.62549884e-05	2.62549884e-05	-2.62549884e-07	6	8	10	1	0	1	-360	360;
	103017154	103017700	0.0621207728	0.0694821499	-2.62549884e-07	0.0006624	0.0013662	0.0015318	1	0	1	-360	360;
	103017763	103017840	2.62549884e-05	2.62549884e-05	-2.62549884e-07	6	8	10	1	0	1	-360	360;
	103016818	103017945	2.62549884e-05	2.62549884e-05	-2.62549884e-07	6	8	10	1	0	1	-360	360;
	103018113	103018127	0.00527359943	0.00231944807	-2.62549884e-07	0.0012282	0.0018492	0.0020562	1	0	1	-360	360;
	103018134	103018141	0.00778135829	0.0013820904	-2.62549884e-07	0.001449	0.0021666	0.002415	1	0	1	-360	360;
	103018190	103018204	0.0151009566	0.00268216505	-2.62549884e-07	0.001449	0.0021666	0.002415	1	0	1	-360	360;
	103018218	103018225	0.0479719606	0.0197752956	-2.62549884e-07	0.001863	0.0028014	0.003105	1	0	1	-360	360;
	103016041	103018183	2.62549884e-05	2.62549884e-05	-2.62549884e-07	6	8	10	1	0	1	-360	360;
	103018239	103018246	0.104981585	0.117422014	-2.62549884e-07	0.0006624	0.0013662	0.0015318	1	0	1	-360	360;
	103018267	103018274	0.0171374017	0.0191682019	-2.62549884e-07	0.0006624	0.0013662	0.0015318	1	0	1	-360	360;
	103018309	103018316	0.181342091	0.20283132	-2.62549884e-07	0.0006624	0.0013662	0.0015318	1	0	1	-360	360;
	104564630	104564637	0.0125073356	0.00840100564	-2.62549884e-07	0.001656	0.002484	0.0027738	1	0	1	-360	360;
	110891909	110891916	0.0602921491	0.018407008	-2.62549884e-07	0.000828	0.001242	0.0013938	1	0	1	-360	360;
	127569955	127569969	0.00513703817	0.00543040487	-2.62549884e-07	0.0037812	0.005658	0.0062928	1	0	1	-360	360;
	127570368	127570375	0.0561107917	0.0627599797	-2.62549884e-07	0.0006624	0.0013662	0.0015318	1	0	1	-360	360;
	148170794	148170795	0.0106405473	0.0112482092	-2.62549884e-07	0.0037812	0.005658	0.0062928	1	0	1	-360	360;
	148170795	148170798	0.00412636616	0.00436201526	-2.62549884e-07	0.0037812	0.005658	0.0062928	1	0	1	-360	360;
	148265539	148265540	0.0128314376	0.0178190335	-2.62549884e-07	0.002622	0.0039468	0.0043884	1	0	1	-360	360;
	148265542	148265543	0.0779570802	0.0871950764	-2.62549884e-07	0.0006624	0.0013662	0.0015318	1	0	1	-360	360;
	103015411	148266961	2.62549884e-05	2.62549884e-05	-2.62549884e-07	6	8	10	1	0	1	-360	360;
	148689110	148689111	0.0314553806	0.0351828764	-2.62549884e-07	0.0006624	0.0013662	0.0015318	1	0	1	-360	360;
	148689117	103017476	0.0118084323	0.00486774435	-2.62549884e-07	0.001863	0.0028014	0.003105	1	0	1	-360	360;
	148689118	148689119	0.00640333057	0.00263962018	-2.62549884e-07	0.001863	0.0028014	0.003105	1	0	1	-360	360;
	102959110	102959117	0.0559687648	0.0626011224	-2.62549884e-07	0.0006624	0.0013662	0.0015318	1	0	1	-360	360;
	103015649	103015656	0.0413225337	0.0181745831	-2.62549884e-07	0.0012282	0.0018492	0.0020562	1	0	1	-360	360;
	103015656	103015740	0.0210758646	0.00926964099	-2.62549884e-07	0.0012282	0.0018492	0.0020562	1	0	1	-360	360;
	103015670	103015677	0.0305157987	0.0341319531	-2.62549884e-07	0.0006624	0.0013662	0.0015318	1	0	1	-360	360;
	103016384	103016391	0.0921332522	0.10305114	-2.62549884e-07	0.0006624	0.0013662	0.0015318	1	0	1	-360	360;
	103016825	103016832	0.00828128702	0.00556242683	-2.62549884e-07	0.001656	0.002484	0.0027738	1	0	1	-360	360;
	103016888	103016902	0.011528279	0.00774338676	-2.62549884e-07	0.001656	0.002484	0.0027738	1	0	1	-360	360;
	103017203	2809255	2.62549884e-05	2.62549884e-05	-2.62549884e-07	6	8	10	1	0	1	-360	360;
	103017350	103017364	0.0300545772	0.0336160762	-2.62549884e-07	0.0006624	0.0013662	0.0015318	1	0	1	-360	360;
	103017364	103017371	0.131506588	0.147090257	-2.62549884e-07	0.0006624	0.0013662	0.0015318	1	0	1	-360	360;
	103017532	103017560	2.62549884e-05	2.62549884e-05	-2.62549884e-07	6	8	10	1	0	1	-360	360;
	103017588	103017602	0.051139694	0.0210811181	-2.62549884e-07	0.001863	0.0028014	0.003105	1	0	1	-360	360;
	103017602	103017609	0.0426274117	0.0175721329	-2.62549884e-07	0.001863	0.0028014	0.003105	1	0	1	-360	360;
	103017679	103017693	0.104190225	0.116536877	-2.62549884e-07	0.0006624	0.0013662	0.0015318	1	0	1	-360	360;
	103017707	103017714	0.154530089	0.172842068	-2.62549884e-07	0.0006624	0.0013662	0.0015318	1	0	1	-360	360;
	103017847	103017854	0.0943756042	0.105559213	-2.62549884e-07	0.0006624	0.0013662	0.0015318	1	0	1	-360	360;
	103018078	103018092	0.0538866872	0.0602723164	-2.62549884e-07	0.0006624	0.0013662	0.0015318	1	0	1	-360	360;
	103018092	103018099	0.0101617065	0.00418892095	-2.62549884e-07	0.001863	0.0028014	0.003105	1	0	1	-360	360;
	103016608	103018162	2.62549884e-05	2.62549884e-05	-2.62549884e-07	6	8	10	1	0	1	-360	360;
	103015950	103018232	2.62549884e-05	2.62549884e-05	-2.62549884e-07	6	8	10	1	0	1	-360	360;
	103018281	103018288	0.0463641329	0.0518583315	-2.62549884e-07	0.0006624	0.0013662	0.0015318	1	0	1	-360	360;
	103018295	103018302	0.150902549	0.16878466	-2.62549884e-07	0.0006624	0.0013662	0.0015318	1	0	1	-360	360;
	104564616	104564630	0.0238813412	0.0160407691	-2.62549884e-07	0.001656	0.002484	0.0027738	1	0	1	-360	360;
	104564623	104564644	0.0616196032	0.0689215912	-2.62549884e-07	0.0006624	0.0013662	0.0015318	1	0	1	-360	360;
	103015404	103015411	0.00779078026	0.0108190664	-2.62549884e-07	0.002622	0.0039468	0.0043884	1	0	1	-360	360;
	110891881	110891888	0.0403837342	0.0166472304	-2.62549884e-07	0.001863	0.0028014	0.003105	1	0	1	-360	360;
	103016909	110891881	2.62549884e-05	2.62549884e-05	-2.62549884e-07	6	8	10	1	0	1	-360	360;
	148170799	148170800	0.0157530922	0.00279799448	-2.62549884e-07	0.001449	0.0021666	0.002415	1	0	1	-360	360;
	148265482	148265483	0.0039794529	0.000706812802	-2.62549884e-07	0.001449	0.0021666	0.002415	1	0	1	-360	360;
	132771606	134112099	0.0018334879	0.00193819499	-2.62549884e-07	0.0037812	0.005658	0.0062928	1	0	1	-360	360;
	148265535	148265536	0.00894996652	0.00449619171	-2.62549884e-07	0.0031878	0.0047886	0.0053268	1	0	1	-360	360;
	148266963	148266964	0.0514017931	0.0713817347	-2.62549884e-07	0.002622	0.0039468	0.0043884	1	0	1	-360	360;
	148689115	103017448	0.0833676043	0.0932467534	-2.62549884e-07	0.0006624	0.0013662	0.0015318	1	0	1	-360	360;
	148689893	148689894	0.00342622356	0.0065057256	-2.62549884e-07	0.003519	0.0052716	0.005865	1	0	1	-360	360;
	148689895	148689904	0.0599052672	0.0670041045	-2.62549884e-07	0.0006624	0.0013662	0.0015318	1	0	1	-360	360;
	148689896	103016720	0.0047577103	0.00319568871	-2.62549884e-07	0.001656	0.002484	0.0027738	1	0	1	-360	360;
	148689896	148689897	0.00179379103	0.00340605684	-2.62549884e-07	0.003519	0.0052716	0.005865	1	0	1	-360	360;
	102959096	102959110	0.00815172495	0.00547540176	-2.62549884e-07	0.001656	0.002484	0.0027738	1	0	1	-360	360;
	102959103	102959096	0.0303959525	0.0204165441	-2.62549884e-07	0.001656	0.002484	0.0027738	1	0	1	-360	360;
	102959103	102959131	0.0069010714	0.00463535494	-2.62549884e-07	0.001656	0.002484	0.0027738	1	0	1	-360	360;
	102959124	102959103	0.00858034696	0.00576330128	-2.62549884e-07	0.001656	0.002484	0.0027738	1	0	1	-360	360;
	2809255	102959152	0.0241849136	0.0162446745	-2.62549884e-07	0.001656	0.002484	0.0027738	1	0	1	-360	360;
	103015691	103015705	0.0214891492	0.0094514129	-2.62549884e-07	0.0012282	0.0018492	0.0020562	1	0	1	-360	360;
	103016286	103016377	2.62549884e-05	2.62549884e-05	-2.62549884e-07	6	8	10	1	0	1	-360	360;
	103016405	103016412	0.0598583706	0.0669516507	-2.62549884e-07	0.0006624	0.0013662	0.0015318	1	0	1	-360	360;
	103016489	103016496	0.0348280492	0.0106328965	-2.62549884e-07	0.000828	0.001242	0.0013938	1	0	1	-360	360;
	103016510	103016517	0.0450198693	0.0137444279	-2.62549884e-07	0.000828	0.001242	0.0013938	1	0	1	-360	360;
	103016517	103016524	0.0287672091	0.00540276183	-2.62549884e-07	0.0006624	0.0009936	0.0011178	1	0	1	-360	360;
	103016818	103016825	0.00979969459	0.00658232035	-2.62549884e-07	0.001656	0.002484	0.0027738	1	0	1	-360	360;
	103017217	103017224	0.0331918319	0.037125099	-2.62549884e-07	0.0006624	0.0013662	0.0015318	1	0	1	-360	360;
	103017210	103017217	2.62549884e-05	2.62549884e-05	-2.62549884e-07	6	8	10	1	0	1	-360	360;
	103017350	103017357	0.224698174	0.251325145	-2.62549884e-07	0.0006624	0.0013662	0.0015318	1	0	1	-360	360;
	103017385	103017392	0.0522498877	0.02298068	-2.62549884e-07	0.0012282	0.0018492	0.0020562	1	0	1	-360	360;
	103017707	103017917	2.62549884e-05	2.62549884e-05	-2.62549884e-07	6	8	10	1	0	1	-360	360;
	103017959	103017966	0.00366282935	0.00150991396	-2.62549884e-07	0.001863	0.0028014	0.003105	1	0	1	-360	360;
	103016755	103018008	2.62549884e-05	2.62549884e-05	-2.62549884e-07	6	8	10	1	0	1	-360	360;
	103018085	103018106	0.0395692716	0.0174034588	-2.62549884e-07	0.0012282	0.0018492	0.0020562	1	0	1	-360	360;
	103018106	103018120	0.0144127207	0.00594130008	-2.62549884e-07	0.001863	0.0028014	0.003105	1	0	1	-360	360;
	103018162	103018169	0.00640333057	0.00263962018	-2.62549884e-07	0.001863	0.0028014	0.003105	1	0	1	-360	360;
	103018190	103018211	0.021821562	0.00387584921	-2.62549884e-07	0.001449	0.0021666	0.002415	1	0	1	-360	360;
	103018288	103018295	0.020748675	0.0232074149	-2.62549884e-07	0.0006624	0.0013662	0.0015318	1	0	1	-360	360;
	104564609	103017091	0.0131237831	0.00881506497	-2.62549884e-07	0.001656	0.002484	0.0027738	1	0	1	-360	360;
	110891930	110891944	0.0576644112	0.0253621097	-2.62549884e-07	0.0012282	0.0018492	0.0020562	1	0	1	-360	360;
	127569353	127569367	0.213291067	0.238566283	-2.62549884e-07	0.0006624	0.0013662	0.0015318	1	0	1	-360	360;
	127569374	127569388	0.210888508	0.235879018	-2.62549884e-07	0.0006624	0.0013662	0.0015318	1	0	1	-360	360;
	103016125	127569941	2.62549884e-05	2.62549884e-05	-2.62549884e-07	6	8	10	1	0	1	-360	360;
	127570354	127570361	0.0526784973	0.0589209548	-2.62549884e-07	0.0006624	0.0013662	0.0015318	1	0	1	-360	360;
	148170791	148170792	0.0051631478	0.00545800558	-2.62549884e-07	0.0037812	0.005658	0.0062928	1	0	1	-360	360;
	148170794	148170796	0.00550046242	0.0058145836	-2.62549884e-07	0.0037812	0.005658	0.0062928	1	0	1	-360	360;
	148265534	148265535	0.00393666518	0.00416148081	-2.62549884e-07	0.0037812	0.005658	0.0062928	1	0	1	-360	360;
	148265536	148265537	0.00596376812	0.00630434783	-2.62549884e-07	0.0037812	0.005658	0.0062928	1	0	1	-360	360;
	148266968	132771606	2.62549884e-05	2.62549884e-05	-2.62549884e-07	6	8	10	1	0	1	-360	360;
	148689111	148689113	0.0657839869	0.0735794588	-2.62549884e-07	0.0006624	0.0013662	0.0015318	1	0	1	-360	360;
	148689117	148689118	0.0601451921	0.0672724608	-2.62549884e-07	0.0006624	0.0013662	0.0015318	1	0	1	-360	360;
	148689120	148689123	0.0489400877	0.0201743829	-2.62549884e-07	0.001863	0.0028014	0.003105	1	0	1	-360	360;
	103015649	103015670	0.00286875392	0.00126174273	-2.62549884e-07	0.0012282	0.0018492	0.0020562	1	0	1	-360	360;
	103015691	103015698	0.00700675687	0.00308172983	-2.62549884e-07	0.0012282	0.0018492	0.0020562	1	0	1	-360	360;
	103015859	103015866	0.0208372142	0.00916467715	-2.62549884e-07	0.0012282	0.0018492	0.0020562	1	0	1	-360	360;
	103016832	103016839	0.0109038477	0.00732396482	-2.62549884e-07	0.001656	0.002484	0.0027738	1	0	1	-360	360;
	103016846	103016853	0.0494573866	0.0332198477	-2.62549884e-07	0.001656	0.002484	0.0027738	1	0	1	-360	360;
	103016867	103016874	0.013444334	0.00903037465	-2.62549884e-07	0.001656	0.002484	0.0027738	1	0	1	-360	360;
	103016874	103016881	0.0747636762	0.0502177351	-2.62549884e-07	0.001656	0.002484	0.0027738	1	0	1	-360	360;
	103017168	103017175	0.0188551806	0.012664766	-2.62549884e-07	0.001656	0.002484	0.0027738	1	0	1	-360	360;
	103017224	103017231	0.0846641961	0.0946969926	-2.62549884e-07	0.0006624	0.0013662	0.0015318	1	0	1	-360	360;
	103017259	103017273	0.106313174	0.118911397	-2.62549884e-07	0.0006624	0.0013662	0.0015318	1	0	1	-360	360;
	103017315	103017322	0.0224056672	0.00985451819	-2.62549884e-07	0.0012282	0.0018492	0.0020562	1	0	1	-360	360;
...
];

%%-----  OPF Data  -----%%
%% generator cost data
%	1	startup	shutdown	n	x1	y1	...	xn	yn
%	2	startup	shutdown	n	c(n-1)	...	c0
mpc.gencost = [
	2	0	0	3	0.25	20	0;
];
